Alim_Meia_Ponte_5_REDUZIDO/5002086_Losses.Txt

LOSSES REPORT

Power Delivery Element Loss Report

Element                  kW Losses    % of Power   kvar Losses

"Line.CMT_5281595"                                0.00000,      0.0     -7.19518E-005
"Line.CMT_5286666"                                0.00000,      0.0     -6.94557E-005
"Line.CMT_5286668"                                0.18724,     0.00     0.187159
"Line.CMT_5286669"                                0.00000,      0.0     -7.19771E-005
"Line.CMT_5286671"                                0.00000,      0.0     -6.97708E-005
"Line.CMT_5286672"                                0.01134,     0.00     0.0112722
"Line.CMT_5286673"                                0.01121,     0.00     0.0111336
"Line.CMT_5286723"                                0.00009,      0.0     2.00749E-005
"Line.CMT_5286724"                                0.00009,      0.0     1.96824E-005
"Line.CMT_5286725"                                0.00008,      0.0     6.6438E-006
"Line.CMT_5286726"                                0.00012,      0.0     5.2695E-005
"Line.CMT_5286727"                                0.00008,      0.0     9.14883E-006
"Line.CMT_5286728"                                0.00001,      0.0     -6.28709E-005
"Line.CMT_5286729"                                0.00103,     0.00     0.000963934
"Line.CMT_5286730"                                0.00004,      0.0     -3.20609E-005
"Line.CMT_5286733"                                0.00001,      0.0     -6.46715E-005
"Line.CMT_5286734"                                0.00001,      0.0     -6.43813E-005
"Line.CMT_5286735"                                0.00060,      0.0     0.000530275
"Line.CMT_5286738"                                0.00004,      0.0     -3.12138E-005
"Line.CMT_5286745"                                0.00000,      0.0     -7.4981E-005
"Line.CMT_5286747"                                0.00012,      0.0     4.62526E-005
"Line.CMT_5286748"                                0.00118,     0.00     0.00110816
"Line.CMT_5286749"                                0.00007,      0.0     1.2833E-006
"Line.CMT_5286750"                                0.00001,      0.0     -6.4594E-005
"Line.CMT_5286751"                                0.00008,      0.0     1.03973E-005
"Line.CMT_5286764"                                0.00010,      0.0     3.0654E-005
"Line.CMT_5286765"                                0.00000,      0.0     -6.94496E-005
"Line.CMT_5286773"                                0.00064,      0.0     0.000571067
"Line.CMT_5286780"                                0.00001,      0.0     -6.22146E-005
"Line.CMT_5286781"                                0.00001,      0.0     -6.24476E-005
"Line.CMT_5286948"                                0.00004,      0.0     -2.76794E-005
"Line.CMT_5286952"                                0.00000,      0.0     -6.7775E-005
"Line.CMT_5286954"                                0.00000,      0.0     -6.82208E-005
"Line.CMT_5286957"                                0.00004,      0.0     -2.81613E-005
"Line.CMT_5323940"                                0.00000,      0.0     -6.76927E-005
"Line.CMT_5508800"                                0.00000,      0.0     -2.54069E-005
"Line.CMT_5551605"                                0.00000,      0.0     -6.62895E-005
"Line.CMT_5552857"                                0.00001,      0.0     -6.72358E-005
"Line.CMT_5578546"                                0.00000,      0.0     -7.19583E-005
"Line.CMT_5583771"                                0.07142,     0.00     0.0713473
"Line.CMT_5583773"                                0.07142,     0.00     0.0713474
"Line.CMT_5583775"                                0.07142,     0.00     0.0713472
"Line.CMT_5643544"                                0.00395,     0.00     0.00388406
"Line.CMT_5643564"                                0.00129,     0.00     0.00121726
"Line.CMT_5643565"                                0.00228,     0.00     0.00221442
"Line.CMT_5644923"                                0.00063,      0.0     0.000563627
"Line.CMT_5678387"                                0.00228,     0.00     0.00221446
"Line.CMT_5688531"                                0.00395,     0.00     0.00388411
"Line.CMT_5689023"                                0.00118,     0.00     0.00110817
"Line.CMT_5689028"                                0.00129,     0.00     0.00121731
"Line.CMT_5700356"                                0.01121,     0.00     0.0111338
"Line.CMT_5702013"                                0.01134,     0.00     0.0112722
"Line.CMT_5702435"                                0.05806,     0.00     0.0579862
"Line.CMT_5702629"                                0.00445,     0.00     0.00437614
"Line.CMT_5710501"                                0.05919,     0.00     0.0591212
"Line.CMT_5720545"                                0.03505,     0.00     0.0349757
"Line.CMT_5722432"                                0.08871,     0.00     0.0886366
"Line.CMT_5724674"                                0.00103,     0.00     0.000963959
"Line.CMT_5744154"                                0.00000,      0.0     -6.71224E-005
"Line.CMT_5750091"                                0.00000,      0.0     -7.10532E-005
"Line.CMT_DA0000250"                              0.00000,      0.0     -7.89738E-005
"Line.CMT_SA0002741"                              0.00000,      0.0     -7.89665E-005
"Line.CMT_SA0002742"                              0.00000,      0.0     -7.89761E-005
"Line.CMT_SA0002751"                              0.00000,      0.0     -7.89729E-005
"Line.SMT_53072474"                               0.15131,     0.02     0.0652107
"Line.SMT_53072475"                               1.51362,     0.03     3.09429
"Line.SMT_53072476"                               0.00000,      0.0     -0.00591941
"Line.SMT_53072477"                               0.85852,     0.02     1.75501
"Line.SMT_53072478"                               0.16688,     0.00     0.340149
"Line.SMT_53072479"                               0.08801,     0.00     0.179401
"Line.SMT_53072480"                               0.71304,     0.02     1.45343
"Line.SMT_53072481"                               1.03998,     0.03     2.11983
"Line.SMT_53072482"                               0.69312,     0.02     1.41227
"Line.SMT_53072483"                               0.00227,     0.00     -0.00530573
"Line.SMT_53072484"                               0.00371,     0.00     -0.00864063
"Line.SMT_53072485"                               0.00280,     0.00     -0.00653062
"Line.SMT_53072486"                               0.00136,     0.00     -0.00733823
"Line.SMT_53072487"                               0.00168,     0.00     -0.00902847
"Line.SMT_53072488"                               0.00142,     0.00     -0.007624
"Line.SMT_53072489"                               0.00061,      0.0     -0.00883703
"Line.SMT_53072490"                               0.00058,      0.0     -0.00842026
"Line.SMT_53072491"                               0.00069,      0.0     -0.00990101
"Line.SMT_53072492"                               0.00046,      0.0     -0.00659233
"Line.SMT_53072493"                               0.00070,      0.0     -0.0116457
"Line.SMT_53072494"                               0.00035,      0.0     -0.00571106
"Line.SMT_53072495"                               0.00036,      0.0     -0.00590731
"Line.SMT_53072496"                               0.00052,      0.0     -0.00866483
"Line.SMT_53072497"                               0.00183,     0.00     -0.0111794
"Line.SMT_53072498"                               0.00120,     0.00     -0.00890298
"Line.SMT_53072499"                               0.00087,      0.0     -0.00650078
"Line.SMT_53072500"                               0.00000,      0.0     -0.00589022
"Line.SMT_53072501"                               0.00125,     0.00     -0.00931113
"Line.SMT_53072502"                               0.00303,     0.00     -0.00662134
"Line.SMT_53072503"                               0.00128,     0.00     -0.00780234
"Line.SMT_53072504"                               0.00140,     0.00     -0.00854911
"Line.SMT_53072505"                               0.00238,     0.00     -0.005747
"Line.SMT_53072506"                               0.00341,     0.00     -0.00745385
"Line.SMT_53072507"                               0.00384,     0.00     -0.00518001
"Line.SMT_53072508"                               0.87867,     0.03     1.78997
"Line.SMT_53072509"                               0.61204,     0.02     1.24682
"Line.SMT_53072510"                               0.41098,     0.01     0.837217
"Line.SMT_53072511"                               0.67502,     0.02     1.37513
"Line.SMT_53072512"                               0.06386,     0.01     0.0226875
"Line.SMT_53072513"                               0.07015,     0.01     0.027076
"Line.SMT_53072514"                               0.08074,     0.01     0.0311584
"Line.SMT_53072515"                               0.09160,     0.02     0.0353502
"Line.SMT_53072516"                               0.11322,     0.02     0.0436879
"Line.SMT_53072517"                               0.07030,     0.01     0.0271225
"Line.SMT_53072518"                               0.07389,     0.01     0.028508
"Line.SMT_53072519"                               0.08153,     0.01     0.0314522
"Line.SMT_53072520"                               0.09794,     0.02     0.03778
"Line.SMT_53072521"                               0.04868,     0.01     0.0187752
"Line.SMT_53072522"                               0.00173,     0.00     -0.00696724
"Line.SMT_53072523"                               0.00011,      0.0     -0.00775288
"Line.SMT_53072524"                               0.01307,     0.01     -0.00375255
"Line.SMT_53072525"                               0.02343,     0.01     0.00274174
"Line.SMT_53072526"                               0.00020,      0.0     -0.00713448
"Line.SMT_53072528"                               0.00025,      0.0     -0.00892021
"Line.SMT_53072529"                               0.00015,      0.0     -0.00775276
"Line.SMT_53072530"                               0.00014,      0.0     -0.0073874
"Line.SMT_53072531"                               0.00017,      0.0     -0.00881459
"Line.SMT_53072532"                               0.00008,      0.0     -0.00403544
"Line.SMT_53072533"                               0.00474,     0.00     -0.00499427
"Line.SMT_53072534"                               0.00601,     0.00     -0.0063222
"Line.SMT_53072535"                               0.00458,     0.00     -0.00482315
"Line.SMT_53072536"                               0.00200,     0.00     -0.00722021
"Line.SMT_53072537"                               0.00156,     0.00     -0.00563083
"Line.SMT_53072538"                               0.00181,     0.00     -0.00652953
"Line.SMT_53072539"                               0.00063,      0.0     -0.00228696
"Line.SMT_53072540"                               0.00000,      0.0     -0.00272844
"Line.SMT_53072541"                               0.00055,      0.0     -0.00408647
"Line.SMT_53072542"                               0.00086,      0.0     -0.00641646
"Line.SMT_53072543"                               0.00082,      0.0     -0.0060602
"Line.SMT_53072544"                               0.03897,     0.01     0.00455571
"Line.SMT_53072545"                               0.02127,     0.01     0.00248437
"Line.SMT_53072546"                               0.00876,     0.00     0.0010249
"Line.SMT_53072547"                               0.02238,     0.01     0.00786933
"Line.SMT_53072548"                               0.03045,     0.01     0.00681058
"Line.SMT_53072549"                               0.03894,     0.01     0.0106061
"Line.SMT_53072550"                               0.00201,     0.00     -0.010671
"Line.SMT_53072551"                               0.00167,     0.00     -0.00882113
"Line.SMT_53072552"                               0.00103,     0.00     -0.00547084
"Line.SMT_53072553"                               0.04886,     0.01     0.0173602
"Line.SMT_53072554"                               0.02154,     0.01     0.00662294
"Line.SMT_53072555"                               0.04237,     0.01     0.013027
"Line.SMT_53072556"                               0.05027,     0.01     0.0154585
"Line.SMT_53072557"                               0.00794,     0.00     -0.00294088
"Line.SMT_53072558"                               0.01069,     0.01     -0.00395743
"Line.SMT_53072559"                               0.00938,     0.00     -0.00347238
"Line.SMT_53072560"                               0.00675,     0.00     -0.0050913
"Line.SMT_53072561"                               0.00725,     0.00     -0.00547162
"Line.SMT_53072562"                               0.05441,     0.01     0.0148235
"Line.SMT_53072563"                               0.03226,     0.01     0.00879094
"Line.SMT_53072564"                               0.03135,     0.01     0.00854308
"Line.SMT_53072565"                               0.03751,     0.01     0.0102245
"Line.SMT_53072566"                               0.03551,     0.01     0.00793976
"Line.SMT_53072567"                               0.00013,      0.0     -0.00904476
"Line.SMT_53072568"                               0.00009,      0.0     -0.00611637
"Line.SMT_53072569"                               0.00052,      0.0     -0.00582754
"Line.SMT_53072570"                               0.00070,      0.0     -0.0079181
"Line.SMT_53072571"                               0.00076,      0.0     -0.00857879
"Line.SMT_53072572"                               0.00052,      0.0     -0.00590238
"Line.SMT_53072573"                               0.00797,     0.01     -0.00601544
"Line.SMT_53072574"                               0.00444,     0.00     -0.00334914
"Line.SMT_53072575"                               0.00724,     0.01     -0.00762591
"Line.SMT_53072576"                               0.00116,     0.00     -0.00626922
"Line.SMT_53072577"                               0.00014,      0.0     -0.00975288
"Line.SMT_53072578"                               0.00011,      0.0     -0.00810951
"Line.SMT_53072579"                               0.44164,     0.01     0.898697
"Line.SMT_53072580"                               0.00106,     0.00     -0.00559056
"Line.SMT_53072581"                               0.00143,     0.00     -0.00755798
"Line.SMT_53072582"                               0.00089,      0.0     -0.00468509
"Line.SMT_53072583"                               0.00115,     0.00     -0.0060435
"Line.SMT_53072584"                               0.00050,      0.0     -0.00264008
"Line.SMT_53072585"                               0.00156,     0.00     -0.00294846
"Line.SMT_53072586"                               0.00298,     0.00     -0.00563416
"Line.SMT_53072587"                               0.00184,     0.00     -0.00348253
"Line.SMT_53072588"                               0.00179,     0.00     -0.00339103
"Line.SMT_53072589"                               0.00109,     0.00     -0.00205974
"Line.SMT_53072591"                               0.00000,      0.0     -0.00394416
"Line.SMT_53072592"                               0.06355,     0.01     0.0233516
"Line.SMT_53072593"                               0.06629,     0.01     0.024363
"Line.SMT_53072594"                               0.01946,     0.01     -0.00146705
"Line.SMT_53072595"                               0.01003,     0.00     -0.000758437
"Line.SMT_53072597"                               0.01777,     0.01     -0.00134252
"Line.SMT_53072598"                               0.00032,      0.0     -0.0074861
"Line.SMT_53072599"                               0.00033,      0.0     -0.00777776
"Line.SMT_53072600"                               0.00021,      0.0     -0.00491906
"Line.SMT_53072601"                               0.00030,      0.0     -0.00699386
"Line.SMT_53072602"                               0.00016,      0.0     -0.00374102
"Line.SMT_53072603"                               0.00018,      0.0     -0.00683008
"Line.SMT_53072604"                               0.00008,      0.0     -0.00292866
"Line.SMT_53072605"                               0.00015,      0.0     -0.00546707
"Line.SMT_53072606"                               0.00013,      0.0     -0.00473335
"Line.SMT_53072607"                               0.15781,     0.01     0.320554
"Line.SMT_53072608"                               0.35013,     0.01     0.710933
"Line.SMT_53072609"                               0.40882,     0.01     0.830432
"Line.SMT_53072610"                               0.43996,     0.02     0.893697
"Line.SMT_53072611"                               0.41965,     0.01     0.852427
"Line.SMT_53072612"                               0.38460,     0.01     0.781231
"Line.SMT_53072613"                               0.49387,     0.02     1.00318
"Line.SMT_53072614"                               0.06795,     0.00     0.13807
"Line.SMT_53072615"                               0.00038,      0.0     -0.00448835
"Line.SMT_53072616"                               0.00052,      0.0     -0.00604945
"Line.SMT_53072617"                               0.00078,      0.0     -0.00913458
"Line.SMT_53072618"                               0.00000,      0.0     -0.00208067
"Line.SMT_53072619"                               0.00000,      0.0     -0.00852529
"Line.SMT_53072620"                               0.00000,      0.0     -0.00920747
"Line.SMT_53072621"                               0.00424,     0.00     -0.00458697
"Line.SMT_53072622"                               0.00316,     0.00     -0.00342248
"Line.SMT_53072623"                               0.00065,      0.0     -0.00832469
"Line.SMT_53072624"                               0.00056,      0.0     -0.00724701
"Line.SMT_53072625"                               0.00247,     0.00     -0.00267213
"Line.SMT_53072626"                               0.00015,      0.0     -0.00190697
"Line.SMT_53072627"                               0.00000,      0.0     -0.0014376
"Line.SMT_53072628"                               0.00171,     0.00     -0.00184936
"Line.SMT_53072629"                               0.00000,      0.0     -0.00538952
"Line.SMT_53072630"                               0.00165,     0.00     -0.00516165
"Line.SMT_53072631"                               0.12492,     0.02     0.0474322
"Line.SMT_53072632"                               0.00017,      0.0     -0.00572197
"Line.SMT_53072633"                               0.00022,      0.0     -0.00720892
"Line.SMT_53072634"                               0.03013,     0.01     0.0114396
"Line.SMT_53072635"                               0.05588,     0.01     0.0205313
"Line.SMT_53072636"                               0.00060,      0.0     -0.00550127
"Line.SMT_53072637"                               0.00085,      0.0     -0.00782851
"Line.SMT_53072638"                               0.00000,      0.0     -0.00671427
"Line.SMT_53072639"                               0.00000,      0.0     -0.00136094
"Line.SMT_53072640"                               0.00008,      0.0     -0.00261599
"Line.SMT_53072641"                               0.05135,     0.01     0.0188681
"Line.SMT_53072643"                               0.04313,     0.01     0.0116096
"Line.SMT_53072644"                               0.01568,     0.00     0.00422208
"Line.SMT_53072645"                               0.02595,     0.01     0.00698779
"Line.SMT_53072646"                               0.03110,     0.01     0.00837623
"Line.SMT_53072647"                               0.02590,     0.01     0.00697647
"Line.SMT_53072648"                               0.02274,     0.01     0.00612584
"Line.SMT_53072649"                               0.02258,     0.01     0.00608446
"Line.SMT_53072650"                               0.02325,     0.01     0.00527254
"Line.SMT_53072651"                               0.03255,     0.01     0.00738345
"Line.SMT_53072652"                               0.01211,     0.00     0.00274791
"Line.SMT_53072653"                               0.00260,     0.00     -0.00884717
"Line.SMT_53072654"                               0.00113,     0.00     -0.00611274
"Line.SMT_53072655"                               0.00134,     0.00     -0.00726958
"Line.SMT_53072656"                               0.00132,     0.00     -0.00716743
"Line.SMT_53072657"                               0.00098,     0.00     -0.00528194
"Line.SMT_53072658"                               0.00158,     0.00     -0.00856538
"Line.SMT_53072659"                               0.00015,      0.0     -0.00542478
"Line.SMT_53072660"                               0.00015,      0.0     -0.00522714
"Line.SMT_53072661"                               0.00024,      0.0     -0.00846047
"Line.SMT_53072662"                               0.03499,     0.01     0.00678739
"Line.SMT_53072663"                               0.02330,     0.01     0.00452069
"Line.SMT_53072665"                               0.02025,     0.01     0.00101473
"Line.SMT_53072666"                               0.00103,     0.00     -0.00951938
"Line.SMT_53072667"                               0.44079,     0.01     0.896402
"Line.SMT_53072668"                               0.46316,     0.02     0.941909
"Line.SMT_53072669"                               0.48261,     0.02     0.981462
"Line.SMT_53072670"                               0.44351,     0.01     0.901942
"Line.SMT_53072671"                               0.11579,     0.00     0.235475
"Line.SMT_53072672"                               0.57388,     0.02     1.16673
"Line.SMT_53072673"                               0.23860,     0.01     0.485016
"Line.SMT_53072674"                               0.23256,     0.01     0.472736
"Line.SMT_53072675"                               0.08104,     0.00     0.164735
"Line.SMT_53072676"                               0.40725,     0.01     0.827618
"Line.SMT_53072677"                               0.58344,     0.02     1.18687
"Line.SMT_53072678"                               0.01084,     0.00     -0.000815742
...
"Transformer.TRF_5286699A"                        0.04094,    13.32     0.00119194
"Line.RESIST_MTR_TRF_5286699A"                    0.00003,      0.0     -7.39322E-005
"Reactor.TRF_5286699A_R"                          0.00000,      0.0     0
"Transformer.TRF_5286707A"                        0.33731,     1.65     0.815952
"Reactor.TRF_5286707A_R"                          0.00000,      0.0     0
"Transformer.TRF_5286708A"                        0.05895,     4.72     0.0137415
"Line.RESIST_MTR_TRF_5286708A"                    0.00046,      0.0     -7.85846E-005
"Reactor.TRF_5286708A_R"                          0.00000,      0.0     -1.65436E-027
"Transformer.TRF_5286718A"                        0.15443,     4.42     0.0252312
"Reactor.TRF_5286718A_R"                          0.00000,      0.0     -9.18355E-044
"Transformer.TRF_5286787A"                        0.57505,     1.30     1.59481
"Reactor.TRF_5286787A_R"                          0.00000,      0.0     0
"Transformer.TRF_5286788A"                        1.03499,     1.43     4.26904
"Reactor.TRF_5286788A_R"                          0.00000,      0.0     0
"Transformer.TRF_5286789A"                        0.42090,     1.46     1.02913
"Reactor.TRF_5286789A_R"                          0.00000,      0.0     0
"Transformer.TRF_5286790A"                        0.58017,     1.26     1.30334
"Reactor.TRF_5286790A_R"                          0.00000,      0.0     -1.88079E-040
"Transformer.TRF_5286791A"                        0.64934,     1.22     1.73255
"Reactor.TRF_5286791A_R"                          0.00000,      0.0     -1.88079E-040
"Transformer.TRF_5286792A"                        0.56196,     1.28     1.18635
"Reactor.TRF_5286792A_R"                          0.00000,      0.0     0
"Transformer.TRF_5286793A"                        0.39144,     1.47     0.877002
"Reactor.TRF_5286793A_R"                          0.00000,      0.0     -2.35099E-041
"Transformer.TRF_5286794A"                        1.19495,     1.88     5.1282
"Reactor.TRF_5286794A_R"                          0.00000,      0.0     0
"Transformer.TRF_5286795A"                        0.58749,     1.26     1.33832
"Reactor.TRF_5286795A_R"                          0.00000,      0.0     0
"Transformer.TRF_5286796A"                        0.52269,     1.47     1.57667
"Reactor.TRF_5286796A_R"                          0.00000,      0.0     0
"Transformer.TRF_5286797A"                        0.35096,     1.52     0.654405
"Reactor.TRF_5286797A_R"                          0.00000,      0.0     2.35099E-041
"Transformer.TRF_5286798A"                        0.39742,     1.47     0.894791
"Reactor.TRF_5286798A_R"                          0.00000,      0.0     4.70198E-041
"Transformer.TRF_5286799A"                        0.72140,     1.32     2.46442
"Reactor.TRF_5286799A_R"                          0.00000,      0.0     0
"Transformer.TRF_5286800A"                        0.61162,     1.30     1.82187
"Reactor.TRF_5286800A_R"                          0.00000,      0.0     0
"Transformer.TRF_5286801A"                        0.48555,     1.46     1.36882
"Reactor.TRF_5286801A_R"                          0.00000,      0.0     -2.35099E-041
"Transformer.TRF_5286802A"                        0.41463,     1.46     1.00098
"Reactor.TRF_5286802A_R"                          0.00000,      0.0     0
"Transformer.TRF_5286803A"                        0.71543,     1.31     2.43576
"Reactor.TRF_5286803A_R"                          0.00000,      0.0     -9.40395E-041
"Transformer.TRF_5286804A"                        0.63956,     1.30     2.0542
"Reactor.TRF_5286804A_R"                          0.00000,      0.0     0
"Transformer.TRF_5286805A"                        0.44848,     1.35     0.935487
"Reactor.TRF_5286805A_R"                          0.00000,      0.0     0
"Transformer.TRF_5286806A"                        0.54751,     1.28     1.17124
"Reactor.TRF_5286806A_R"                          0.00000,      0.0     -4.70198E-041
"Transformer.TRF_5286807A"                        0.80814,     1.36     3.04315
"Reactor.TRF_5286807A_R"                          0.00000,      0.0     -1.88079E-040
"Transformer.TRF_5286808A"                        0.81712,     1.36     3.0969
"Reactor.TRF_5286808A_R"                          0.00000,      0.0     0
"Transformer.TRF_5286809A"                        0.54268,     1.28     1.14825
"Reactor.TRF_5286809A_R"                          0.00000,      0.0     9.40395E-041
"Transformer.TRF_5286810A"                        0.98123,     1.43     4.05477
"Reactor.TRF_5286810A_R"                          0.00000,      0.0     0
"Transformer.TRF_5286811A"                        0.68313,     1.31     2.31491
"Reactor.TRF_5286811A_R"                          0.00000,      0.0     -9.40395E-041
"Transformer.TRF_5286812A"                        1.46675,     1.65     6.87852
"Reactor.TRF_5286812A_R"                          0.00000,      0.0     0
"Transformer.TRF_5286813A"                        0.35994,     1.48     0.755025
"Reactor.TRF_5286813A_R"                          0.00000,      0.0     0
"Transformer.TRF_5286814A"                        0.71875,     1.32     2.52911
"Reactor.TRF_5286814A_R"                          0.00000,      0.0     0
"Transformer.TRF_5286815A"                        0.84602,     1.37     3.27204
"Reactor.TRF_5286815A_R"                          0.00000,      0.0     0
"Transformer.TRF_5286816A"                        0.62561,     1.22     1.66405
"Reactor.TRF_5286816A_R"                          0.00000,      0.0     9.40395E-041
"Transformer.TRF_5286817A"                        0.46559,     1.45     1.31787
"Reactor.TRF_5286817A_R"                          0.00000,      0.0     -4.70198E-041
"Transformer.TRF_5286818A"                        0.32081,     1.55     0.540364
"Reactor.TRF_5286818A_R"                          0.00000,      0.0     0
"Transformer.TRF_5286819A"                        0.72090,     1.32     2.53882
"Reactor.TRF_5286819A_R"                          0.00000,      0.0     -1.88079E-040
"Transformer.TRF_5286820A"                        0.54087,     1.48     1.71502
"Reactor.TRF_5286820A_R"                          0.00000,      0.0     0
"Transformer.TRF_5286821A"                        1.06576,     1.47     4.54401
"Reactor.TRF_5286821A_R"                          0.00000,      0.0     -3.76158E-040
"Transformer.TRF_5286828A"                        0.54691,     1.32     1.37914
"Reactor.TRF_5286828A_R"                          0.00000,      0.0     0
"Transformer.TRF_5286829A"                        0.36305,     1.53     0.66383
"Reactor.TRF_5286829A_R"                          0.00000,      0.0     -2.35099E-041
"Transformer.TRF_5286830A"                        0.64443,     1.31     1.96538
"Reactor.TRF_5286830A_R"                          0.00000,      0.0     0
"Transformer.TRF_5286831A"                        0.60373,     1.51     2.00787
"Reactor.TRF_5286831A_R"                          0.00000,      0.0     0
"Transformer.TRF_5286832A"                        0.48534,     1.46     1.37295
"Reactor.TRF_5286832A_R"                          0.00000,      0.0     0
"Transformer.TRF_5286833A"                        0.56164,     1.27     1.20682
"Reactor.TRF_5286833A_R"                          0.00000,      0.0     0
"Transformer.TRF_5286834A"                        0.92540,     1.71     3.71427
"Reactor.TRF_5286834A_R"                          0.00000,      0.0     0
"Transformer.TRF_5286835A"                        0.59411,     1.30     1.73971
"Reactor.TRF_5286835A_R"                          0.00000,      0.0     -9.40395E-041
"Transformer.TRF_5286836A"                        0.42617,     1.45     1.06635
"Reactor.TRF_5286836A_R"                          0.00000,      0.0     -4.70198E-041
...